<?xml version="1.0" encoding="UTF-8"?>

<!-- generated on 2024-12-08 20:44:07 by Eclipse SUMO netedit Version 1.21.0
-->

<additional xmlns:xsi="http://www.w3.org/2001/XMLSchema-instance" xsi:noNamespaceSchemaLocation="http://sumo.dlr.de/xsd/additional_file.xsd">
    <!-- TAZs -->
    <taz id="taz_0" shape="-9.52,50.98 -18.04,42.05 -9.76,34.43 1.77,39.54 -9.35,50.98 -9.52,50.98" color="blue">
        <tazSource id="-E0" weight="1.00"/>
        <tazSink id="-E0" weight="1.00"/>
        <tazSource id="E0" weight="1.00"/>
        <tazSink id="E0" weight="1.00"/>
    </taz>
    <taz id="taz_1" shape="-59.43,7.32 -70.47,-5.10 -64.87,-13.62 -51.88,-11.76 -51.56,4.96 -59.43,7.40 -59.43,7.32" color="blue">
        <tazSource id="-E1" weight="1.00"/>
        <tazSink id="-E1" weight="1.00"/>
        <tazSource id="E1" weight="1.00"/>
        <tazSink id="E1" weight="1.00"/>
    </taz>
    <taz id="taz_2" shape="-16.25,-35.86 -11.95,-49.99 8.67,-46.82 6.96,-33.92 -16.17,-35.95 -16.25,-35.86" color="blue">
        <tazSource id="-E3" weight="1.00"/>
        <tazSink id="-E3" weight="1.00"/>
        <tazSource id="E3" weight="1.00"/>
        <tazSink id="E3" weight="1.00"/>
    </taz>
    <taz id="taz_3" shape="53.79,13.00 46.73,-3.80 58.01,-9.65 63.05,4.15 53.63,13.08 53.79,13.00" color="blue">
        <tazSource id="-E2" weight="1.00"/>
        <tazSink id="-E2" weight="1.00"/>
        <tazSource id="E2" weight="1.00"/>
        <tazSink id="E2" weight="1.00"/>
    </taz>
</additional>
