<?xml version="1.0" encoding="UTF-8"?>

<!-- generated on 2024-12-08 20:44:07 by Eclipse SUMO netedit Version 1.21.0
<neteditConfiguration xmlns:xsi="http://www.w3.org/2001/XMLSchema-instance" xsi:noNamespaceSchemaLocation="http://sumo.dlr.de/xsd/neteditConfiguration.xsd">

    <input>
        <sumocfg-file value="C:\sumo_img\case_b\case_b.sumocfg"/>
        <additional-files value="C:\sumo_img\case_b\case_b.add.xml"/>
        <sumo-net-file value="C:\sumo_img\case_b\case_b.net.xml"/>
    </input>

    <output>
        <output-file value="C:\sumo_img\case_b\case_b.net.xml"/>
    </output>

    <processing>
        <geometry.min-radius.fix.railways value="false"/>
        <geometry.max-grade.fix value="false"/>
        <offset.disable-normalization value="true"/>
        <lefthand value="0"/>
    </processing>

    <junctions>
        <no-internal-links value="false"/>
        <no-turnarounds value="true"/>
        <junctions.corner-detail value="5"/>
        <junctions.limit-turn-speed value="5.50"/>
        <rectangular-lane-cut value="0"/>
    </junctions>

    <pedestrian>
        <walkingareas value="0"/>
    </pedestrian>

</neteditConfiguration>
-->

<net version="1.20" junctionCornerDetail="5" limitTurnSpeed="5.50" xmlns:xsi="http://www.w3.org/2001/XMLSchema-instance" xsi:noNamespaceSchemaLocation="http://sumo.dlr.de/xsd/net_file.xsd">

    <location netOffset="0.00,0.00" convBoundary="-61.99,-43.97,54.81,43.83" origBoundary="-10000000000.00,-10000000000.00,10000000000.00,10000000000.00" projParameter="!"/>

    <edge id=":J0_w0" function="walkingarea">
        <lane id=":J0_w0_0" index="0" allow="pedestrian" speed="2.78" length="11.60" width="2.00" shape="-13.85,43.79 -15.85,43.78 -2.25,43.86 -4.25,43.85"/>
    </edge>
    <edge id=":J1_0" function="internal">
        <lane id=":J1_0_0" index="0" disallow="pedestrian" speed="13.89" length="21.14" shape="3.23,4.48 -3.06,3.92 -7.36,2.78 -11.56,1.61 -17.55,1.01"/>
    </edge>
    <edge id=":J1_1" function="internal">
        <lane id=":J1_1_0" index="0" disallow="pedestrian" speed="9.23" length="15.32" shape="3.26,1.28 -2.01,0.49 -5.74,-1.80 -7.93,-5.57 -8.09,-6.82"/>
    </edge>
    <edge id=":J1_8" function="internal">
        <lane id=":J1_8_0" index="0" disallow="pedestrian" speed="9.23" length="4.04" shape="-8.09,-6.82 -8.59,-10.83"/>
    </edge>
    <edge id=":J1_2" function="internal">
        <lane id=":J1_2_0" index="0" disallow="pedestrian" speed="13.89" length="21.09" shape="-2.19,-10.71 -2.80,-4.45 -3.97,-0.16 -5.11,4.03 -5.64,10.01"/>
    </edge>
    <edge id=":J1_3" function="internal">
        <lane id=":J1_3_0" index="0" disallow="pedestrian" speed="9.25" length="15.26" shape="-5.39,-10.77 -6.23,-5.54 -8.54,-1.83 -12.31,0.35 -13.54,0.51"/>
    </edge>
    <edge id=":J1_9" function="internal">
        <lane id=":J1_9_0" index="0" disallow="pedestrian" speed="9.25" length="4.04" shape="-13.54,0.51 -17.55,1.01"/>
    </edge>
    <edge id=":J1_4" function="internal">
        <lane id=":J1_4_0" index="0" disallow="pedestrian" speed="13.89" length="21.09" shape="-17.44,-5.39 -11.17,-4.78 -6.89,-3.62 -2.69,-2.47 3.28,-1.92"/>
    </edge>
    <edge id=":J1_5" function="internal">
        <lane id=":J1_5_0" index="0" disallow="pedestrian" speed="9.30" length="15.31" shape="-17.49,-2.19 -12.28,-1.35 -8.57,0.97 -6.36,4.75 -6.19,6.01"/>
    </edge>
    <edge id=":J1_10" function="internal">
        <lane id=":J1_10_0" index="0" disallow="pedestrian" speed="9.30" length="4.04" shape="-6.19,6.01 -5.64,10.01"/>
    </edge>
    <edge id=":J1_6" function="internal">
        <lane id=":J1_6_0" index="0" disallow="pedestrian" speed="13.89" length="21.17" shape="-12.04,9.97 -11.50,3.68 -10.36,-0.63 -9.20,-4.85 -8.59,-10.83"/>
    </edge>
    <edge id=":J1_7" function="internal">
        <lane id=":J1_7_0" index="0" disallow="pedestrian" speed="9.26" length="15.36" shape="-8.84,9.99 -8.06,4.74 -5.77,1.01 -1.99,-1.21 -0.72,-1.38"/>
    </edge>
    <edge id=":J1_11" function="internal">
        <lane id=":J1_11_0" index="0" disallow="pedestrian" speed="9.26" length="4.04" shape="-0.72,-1.38 3.28,-1.92"/>
    </edge>
    <edge id=":J1_c0" function="crossing" crossingEdges="E2 -E2">
        <lane id=":J1_c0_0" index="0" allow="pedestrian" speed="2.78" length="9.60" width="4.00" shape="1.30,-3.53 1.21,6.06" outlineShape="3.30,-3.52 3.21,6.08 3.21,6.18 3.21,6.08 1.00,6.17 -0.79,6.49 -0.79,6.05 -0.70,-3.55 0.11,-5.86 0.32,-5.33 1.08,-4.33 2.07,-3.73"/>
    </edge>
    <edge id=":J1_c1" function="crossing" crossingEdges="E3 -E3">
        <lane id=":J1_c1_0" index="0" allow="pedestrian" speed="2.78" length="9.60" width="4.00" shape="-10.22,-8.86 -0.63,-8.68" outlineShape="-10.19,-10.86 -0.59,-10.68 -0.52,-8.50 -0.21,-6.72 -0.66,-6.68 -10.26,-6.86 -12.56,-7.69 -12.03,-7.89 -11.02,-8.65 -10.41,-9.64"/>
    </edge>
    <edge id=":J1_c2" function="crossing" crossingEdges="-E1 E1">
        <lane id=":J1_c2_0" index="0" allow="pedestrian" speed="2.78" length="9.60" width="4.00" shape="-15.58,2.64 -15.41,-6.95" outlineShape="-17.58,2.71 -17.41,-6.99 -15.22,-7.06 -13.43,-7.36 -13.41,-6.92 -13.58,2.68 -14.41,4.98 -14.60,4.48 -15.37,3.46 -16.36,2.83"/>
    </edge>
    <edge id=":J1_c3" function="crossing" crossingEdges="-E0 E0">
        <lane id=":J1_c3_0" index="0" allow="pedestrian" speed="2.78" length="9.60" width="4.00" shape="-4.03,8.02 -13.63,7.97" outlineShape="-4.04,10.02 -13.64,9.97 -13.74,9.96 -13.64,9.97 -13.74,7.74 -14.05,5.96 -13.62,5.97 -4.02,6.02 -1.71,6.84 -2.22,7.04 -3.23,7.81 -3.84,8.80"/>
    </edge>
    <edge id=":J1_w0" function="walkingarea">
        <lane id=":J1_w0_0" index="0" allow="pedestrian" speed="2.78" length="5.02" width="4.00" shape="-4.04,10.02 -2.04,10.04 3.20,8.08 3.21,6.08 1.00,6.17 -0.81,6.49 -2.22,7.04 -3.23,7.81 -3.84,8.80"/>
    </edge>
    <edge id=":J1_w1" function="walkingarea">
        <lane id=":J1_w1_0" index="0" allow="pedestrian" speed="2.78" length="4.95" width="4.00" shape="3.30,-3.52 3.32,-5.52 1.41,-10.65 -0.59,-10.68 -0.52,-8.50 -0.21,-6.72 0.32,-5.33 1.08,-4.33 2.07,-3.73"/>
    </edge>
    <edge id=":J1_w2" function="walkingarea">
        <lane id=":J1_w2_0" index="0" allow="pedestrian" speed="2.78" length="4.97" width="4.00" shape="-10.19,-10.86 -12.19,-10.90 -17.38,-8.99 -17.41,-6.99 -15.22,-7.06 -13.43,-7.36 -12.03,-7.89 -11.02,-8.65 -10.41,-9.64"/>
    </edge>
    <edge id=":J1_w3" function="walkingarea">
        <lane id=":J1_w3_0" index="0" allow="pedestrian" speed="2.78" length="5.07" width="4.00" shape="-17.58,2.61 -17.61,4.61 -15.64,9.95 -13.64,9.97 -13.74,7.74 -14.06,5.91 -14.60,4.48 -15.37,3.46 -16.36,2.83"/>
    </edge>
    <edge id=":J2_w0" function="walkingarea">
        <lane id=":J2_w0_0" index="0" allow="pedestrian" speed="2.78" length="11.60" width="2.00" shape="-61.88,-7.76 -61.84,-9.76 -62.08,3.84 -62.05,1.84"/>
    </edge>
    <edge id=":J3_w0" function="walkingarea">
        <lane id=":J3_w0_0" index="0" allow="pedestrian" speed="2.78" length="11.60" width="2.00" shape="54.75,6.54 54.74,8.54 54.86,-5.06 54.84,-3.06"/>
    </edge>
    <edge id=":J4_w0" function="walkingarea">
        <lane id=":J4_w0_0" index="0" allow="pedestrian" speed="2.78" length="11.60" width="2.00" shape="0.03,-43.85 2.03,-43.81 -11.57,-44.07 -9.57,-44.03"/>
    </edge>

    <edge id="-E0" from="J1" to="J0" priority="-1">
        <lane id="-E0_0" index="0" allow="pedestrian" speed="13.89" length="33.83" width="2.00" shape="-3.04,10.03 -3.25,43.86"/>
        <lane id="-E0_1" index="1" disallow="pedestrian" speed="13.89" length="33.83" shape="-5.64,10.01 -5.85,43.84"/>
    </edge>
    <edge id="-E1" from="J1" to="J2" priority="-1">
        <lane id="-E1_0" index="0" allow="pedestrian" speed="13.89" length="44.48" width="2.00" shape="-17.59,3.61 -62.06,2.84"/>
        <lane id="-E1_1" index="1" disallow="pedestrian" speed="13.89" length="44.48" shape="-17.55,1.01 -62.02,0.24"/>
    </edge>
    <edge id="-E2" from="J3" to="J1" priority="-1">
        <lane id="-E2_0" index="0" allow="pedestrian" speed="13.89" length="51.54" width="2.00" shape="54.74,7.54 3.20,7.08"/>
        <lane id="-E2_1" index="1" disallow="pedestrian" speed="13.89" length="51.54" shape="54.77,4.94 3.23,4.48"/>
        <lane id="-E2_2" index="2" disallow="pedestrian" speed="13.89" length="51.54" shape="54.80,1.74 3.26,1.28"/>
    </edge>
    <edge id="-E3" from="J4" to="J1" priority="-1">
        <lane id="-E3_0" index="0" allow="pedestrian" speed="13.89" length="33.17" width="2.00" shape="1.03,-43.83 0.41,-10.66"/>
        <lane id="-E3_1" index="1" disallow="pedestrian" speed="13.89" length="33.17" shape="-1.57,-43.88 -2.19,-10.71"/>
        <lane id="-E3_2" index="2" disallow="pedestrian" speed="13.89" length="33.17" shape="-4.77,-43.94 -5.39,-10.77"/>
    </edge>
    <edge id="E0" from="J0" to="J1" priority="-1">
        <lane id="E0_0" index="0" allow="pedestrian" speed="13.89" length="33.83" width="2.00" shape="-14.85,43.78 -14.64,9.96"/>
        <lane id="E0_1" index="1" disallow="pedestrian" speed="13.89" length="33.83" shape="-12.25,43.80 -12.04,9.97"/>
        <lane id="E0_2" index="2" disallow="pedestrian" speed="13.89" length="33.83" shape="-9.05,43.82 -8.84,9.99"/>
    </edge>
    <edge id="E1" from="J2" to="J1" priority="-1">
        <lane id="E1_0" index="0" allow="pedestrian" speed="13.89" length="44.48" width="2.00" shape="-61.86,-8.76 -17.39,-7.99"/>
        <lane id="E1_1" index="1" disallow="pedestrian" speed="13.89" length="44.48" shape="-61.91,-6.16 -17.44,-5.39"/>
        <lane id="E1_2" index="2" disallow="pedestrian" speed="13.89" length="44.48" shape="-61.96,-2.96 -17.49,-2.19"/>
    </edge>
    <edge id="E2" from="J1" to="J3" priority="-1">
        <lane id="E2_0" index="0" allow="pedestrian" speed="13.89" length="51.54" width="2.00" shape="3.31,-4.52 54.85,-4.06"/>
        <lane id="E2_1" index="1" disallow="pedestrian" speed="13.89" length="51.54" shape="3.28,-1.92 54.82,-1.46"/>
    </edge>
    <edge id="E3" from="J1" to="J4" priority="-1">
        <lane id="E3_0" index="0" allow="pedestrian" speed="13.89" length="33.17" width="2.00" shape="-11.19,-10.88 -10.57,-44.05"/>
        <lane id="E3_1" index="1" disallow="pedestrian" speed="13.89" length="33.17" shape="-8.59,-10.83 -7.97,-44.00"/>
    </edge>

    <tlLogic id="J1" type="static" programID="0" offset="0">
        <phase duration="10000" state="rGrrrGrrrrrr"/>
        <phase duration="10000" state="ryrrryrrrrrr"/>
        <phase duration="10000" state="GrrrGrrrrGrG"/>
        <phase duration="10000" state="yrrryrrrrrrr"/>
        <phase duration="10000" state="rrrGrrrGrrrr"/>
        <phase duration="10000" state="rrryrrryrrrr"/>
        <phase duration="10000" state="rrGrrrGrGrGr"/>
        <phase duration="10000" state="rryrrryrrrrr"/>
    </tlLogic>

    <junction id="J0" type="dead_end" x="-7.45" y="43.83" incLanes="-E0_0 -E0_1" intLanes="" shape="-7.45,43.83 -2.25,43.86 -7.45,43.83"/>
    <junction id="J1" type="traffic_light" x="-7.18" y="-0.41" incLanes="-E2_0 -E2_1 -E2_2 -E3_0 -E3_1 -E3_2 E1_0 E1_1 E1_2 E0_0 E0_1 E0_2 :J1_w1_0 :J1_w2_0 :J1_w3_0 :J1_w0_0" intLanes=":J1_0_0 :J1_8_0 :J1_2_0 :J1_9_0 :J1_4_0 :J1_10_0 :J1_6_0 :J1_11_0 :J1_c0_0 :J1_c1_0 :J1_c2_0 :J1_c3_0" shape="3.20,8.08 3.32,-5.52 2.22,-6.09 1.84,-6.81 1.58,-7.80 1.44,-9.08 1.41,-10.65 -12.19,-10.90 -12.78,-9.80 -13.50,-9.42 -14.51,-9.16 -15.80,-9.02 -17.38,-8.99 -17.61,4.61 -16.50,5.22 -16.12,5.96 -15.85,7.00 -15.69,8.33 -15.64,9.95 -2.04,10.04 -1.46,8.93 -0.73,8.55 0.29,8.28 1.60,8.12">
        <request index="0"  response="010110101000" foes="010111101100" cont="0"/>
        <request index="1"  response="001110011000" foes="001111011100" cont="1"/>
        <request index="2"  response="101010110011" foes="101010110011" cont="0"/>
        <request index="3"  response="011001110011" foes="011001110011" cont="1"/>
        <request index="4"  response="010110001010" foes="010111001110" cont="0"/>
        <request index="5"  response="110010001001" foes="110011001101" cont="1"/>
        <request index="6"  response="101000111011" foes="101000111011" cont="0"/>
        <request index="7"  response="100100110111" foes="100100110111" cont="1"/>
        <request index="8"  response="000000000000" foes="000010010011" cont="0"/>
        <request index="9"  response="000000000000" foes="000001001110" cont="0"/>
        <request index="10" response="000000000000" foes="000000111001" cont="0"/>
        <request index="11" response="000000000000" foes="000011100100" cont="0"/>
    </junction>
    <junction id="J2" type="dead_end" x="-61.99" y="-1.36" incLanes="-E1_0 -E1_1" intLanes="" shape="-61.99,-1.36 -62.08,3.84 -61.99,-1.36"/>
    <junction id="J3" type="dead_end" x="54.81" y="0.14" incLanes="E2_0 E2_1" intLanes="" shape="54.81,0.14 54.86,-5.06 54.81,0.14"/>
    <junction id="J4" type="dead_end" x="-6.37" y="-43.97" incLanes="E3_0 E3_1" intLanes="" shape="-6.37,-43.97 -11.57,-44.07 -6.37,-43.97"/>

    <junction id=":J1_8_0" type="internal" x="-8.09" y="-6.82" incLanes=":J1_1_0" intLanes=":J1_2_0 :J1_3_0 :J1_4_0 :J1_6_0 :J1_7_0 :J1_c0_0 :J1_c1_0"/>
    <junction id=":J1_9_0" type="internal" x="-13.54" y="0.51" incLanes=":J1_3_0" intLanes=":J1_0_0 :J1_1_0 :J1_4_0 :J1_5_0 :J1_6_0 :J1_c1_0 :J1_c2_0"/>
    <junction id=":J1_10_0" type="internal" x="-6.19" y="6.01" incLanes=":J1_5_0" intLanes=":J1_0_0 :J1_2_0 :J1_3_0 :J1_6_0 :J1_7_0 :J1_c2_0 :J1_c3_0"/>
    <junction id=":J1_11_0" type="internal" x="-0.72" y="-1.38" incLanes=":J1_7_0" intLanes=":J1_0_0 :J1_1_0 :J1_2_0 :J1_4_0 :J1_5_0 :J1_c0_0 :J1_c3_0"/>

    <connection from="-E2" to="-E1" fromLane="1" toLane="1" via=":J1_0_0" tl="J1" linkIndex="0" dir="s" state="o"/>
    <connection from="-E2" to="E3" fromLane="2" toLane="1" via=":J1_1_0" tl="J1" linkIndex="1" dir="l" state="o"/>
    <connection from="-E3" to="-E0" fromLane="1" toLane="1" via=":J1_2_0" tl="J1" linkIndex="2" dir="s" state="o"/>
    <connection from="-E3" to="-E1" fromLane="2" toLane="1" via=":J1_3_0" tl="J1" linkIndex="3" dir="l" state="o"/>
    <connection from="E0" to="E3" fromLane="1" toLane="1" via=":J1_6_0" tl="J1" linkIndex="6" dir="s" state="o"/>
    <connection from="E0" to="E2" fromLane="2" toLane="1" via=":J1_7_0" tl="J1" linkIndex="7" dir="l" state="o"/>
    <connection from="E1" to="E2" fromLane="1" toLane="1" via=":J1_4_0" tl="J1" linkIndex="4" dir="s" state="o"/>
    <connection from="E1" to="-E0" fromLane="2" toLane="1" via=":J1_5_0" tl="J1" linkIndex="5" dir="l" state="o"/>

    <connection from=":J1_0" to="-E1" fromLane="0" toLane="1" dir="s" state="M"/>
    <connection from=":J1_1" to="E3" fromLane="0" toLane="1" via=":J1_8_0" dir="l" state="m"/>
    <connection from=":J1_8" to="E3" fromLane="0" toLane="1" dir="l" state="m"/>
    <connection from=":J1_2" to="-E0" fromLane="0" toLane="1" dir="s" state="M"/>
    <connection from=":J1_3" to="-E1" fromLane="0" toLane="1" via=":J1_9_0" dir="l" state="m"/>
    <connection from=":J1_9" to="-E1" fromLane="0" toLane="1" dir="l" state="m"/>
    <connection from=":J1_4" to="E2" fromLane="0" toLane="1" dir="s" state="M"/>
    <connection from=":J1_5" to="-E0" fromLane="0" toLane="1" via=":J1_10_0" dir="l" state="m"/>
    <connection from=":J1_10" to="-E0" fromLane="0" toLane="1" dir="l" state="m"/>
    <connection from=":J1_6" to="E3" fromLane="0" toLane="1" dir="s" state="M"/>
    <connection from=":J1_7" to="E2" fromLane="0" toLane="1" via=":J1_11_0" dir="l" state="m"/>
    <connection from=":J1_11" to="E2" fromLane="0" toLane="1" dir="l" state="m"/>

    <connection from=":J0_w0" to="E0" fromLane="0" toLane="0" dir="s" state="M"/>
    <connection from="-E0" to=":J0_w0" fromLane="0" toLane="0" dir="s" state="M"/>
    <connection from=":J1_c0" to=":J1_w0" fromLane="0" toLane="0" dir="s" state="M"/>
    <connection from=":J1_c1" to=":J1_w1" fromLane="0" toLane="0" dir="s" state="M"/>
    <connection from=":J1_c2" to=":J1_w2" fromLane="0" toLane="0" dir="s" state="M"/>
    <connection from=":J1_c3" to=":J1_w3" fromLane="0" toLane="0" dir="s" state="M"/>
    <connection from=":J1_w0" to=":J1_c3" fromLane="0" toLane="0" tl="J1" linkIndex="11" dir="s" state="M"/>
    <connection from=":J1_w0" to="-E0" fromLane="0" toLane="0" dir="s" state="M"/>
    <connection from="-E2" to=":J1_w0" fromLane="0" toLane="0" dir="s" state="M"/>
    <connection from=":J1_w1" to=":J1_c0" fromLane="0" toLane="0" tl="J1" linkIndex="8" dir="s" state="M"/>
    <connection from=":J1_w1" to="E2" fromLane="0" toLane="0" dir="s" state="M"/>
    <connection from="-E3" to=":J1_w1" fromLane="0" toLane="0" dir="s" state="M"/>
    <connection from=":J1_w2" to=":J1_c1" fromLane="0" toLane="0" tl="J1" linkIndex="9" dir="s" state="M"/>
    <connection from=":J1_w2" to="E3" fromLane="0" toLane="0" dir="s" state="M"/>
    <connection from="E1" to=":J1_w2" fromLane="0" toLane="0" dir="s" state="M"/>
    <connection from=":J1_w3" to=":J1_c2" fromLane="0" toLane="0" tl="J1" linkIndex="10" dir="s" state="M"/>
    <connection from=":J1_w3" to="-E1" fromLane="0" toLane="0" dir="s" state="M"/>
    <connection from="E0" to=":J1_w3" fromLane="0" toLane="0" dir="s" state="M"/>
    <connection from=":J2_w0" to="E1" fromLane="0" toLane="0" dir="s" state="M"/>
    <connection from="-E1" to=":J2_w0" fromLane="0" toLane="0" dir="s" state="M"/>
    <connection from=":J3_w0" to="-E2" fromLane="0" toLane="0" dir="s" state="M"/>
    <connection from="E2" to=":J3_w0" fromLane="0" toLane="0" dir="s" state="M"/>
    <connection from=":J4_w0" to="-E3" fromLane="0" toLane="0" dir="s" state="M"/>
    <connection from="E3" to=":J4_w0" fromLane="0" toLane="0" dir="s" state="M"/>
</net>
