<?xml version="1.0" encoding="UTF-8"?>

<!-- generated on 2024-12-08 20:44:07 by Eclipse SUMO sumo Version 1.21.0
-->

<sumoConfiguration xmlns:xsi="http://www.w3.org/2001/XMLSchema-instance" xsi:noNamespaceSchemaLocation="http://sumo.dlr.de/xsd/sumoConfiguration.xsd">

    <input>
        <net-file value="case_b.net.xml"/>
        <route-files value="case_b.rou.xml"/>
        <additional-files value="case_b.add.xml"/>
    </input>

</sumoConfiguration>
