<?xml version="1.0" encoding="UTF-8"?>
<routes xmlns:xsi="http://www.w3.org/2001/XMLSchema-instance" xsi:noNamespaceSchemaLocation="http://sumo.dlr.de/xsd/routes_file.xsd">
    <person id="p_1" depart="0">
        <personTrip from="E2" to="-E2"/>
    </person>
    <person id="p_2" depart="0">
        <personTrip from="E1" to="-E2"/>
    </person>
    <person id="p_3" depart="0">
        <personTrip from="E2" to="-E1"/>
    </person>
    <person id="p_4" depart="0">
        <personTrip from="E2" to="-E0"/>
    </person>
    <person id="p_5" depart="0">
        <personTrip from="E0" to="-E0"/>
    </person>
    <person id="p_6" depart="0">
        <personTrip from="E2" to="-E1"/>
    </person>
    <person id="p_7" depart="0">
        <personTrip from="E2" to="-E0"/>
    </person>
    <person id="p_8" depart="0">
        <personTrip from="E2" to="-E3"/>
    </person>
    <person id="p_9" depart="0">
        <personTrip from="E3" to="-E0"/>
    </person>
    <flow id="F1" begin="0" departLane="2" departSpeed="1" fromTaz="taz_1" toTaz="taz_0" end="600" number="155"/>
    <flow id="F2" begin="0" departLane="2" fromTaz="taz_3" departSpeed="1" toTaz="taz_2" end="600" number="220"/>
    <flow id="F3" begin="0" departLane="1" fromTaz="taz_1" departSpeed="1" toTaz="taz_3" end="600" number="103"/>
    <flow id="F4" begin="0" departLane="1" fromTaz="taz_3" departSpeed="1" toTaz="taz_1" end="600" number="226"/>
    <flow id="F5" begin="0" departLane="2" departSpeed="1" fromTaz="taz_2" toTaz="taz_1" end="600" number="282"/>
    <flow id="F6" begin="0" departLane="2" fromTaz="taz_0" departSpeed="1" toTaz="taz_3" end="600" number="172"/>
    <flow id="F7" begin="0" departLane="1" fromTaz="taz_0" departSpeed="1" toTaz="taz_2" end="600" number="216"/>
    <flow id="F8" begin="0" departLane="1" fromTaz="taz_2" departSpeed="1" toTaz="taz_0" end="600" number="261"/>
    <person id="p_201" depart="601">
        <personTrip from="E1" to="-E0"/>
    </person>
    <person id="p_202" depart="601">
        <personTrip from="E2" to="-E0"/>
    </person>
    <person id="p_203" depart="601">
        <personTrip from="E2" to="-E3"/>
    </person>
    <person id="p_204" depart="601">
        <personTrip from="E3" to="-E1"/>
    </person>
    <person id="p_205" depart="601">
        <personTrip from="E0" to="-E0"/>
    </person>
    <person id="p_206" depart="601">
        <personTrip from="E1" to="-E3"/>
    </person>
    <flow id="F9" begin="601" departLane="2" departSpeed="1" fromTaz="taz_1" toTaz="taz_0" end="1200" number="142"/>
    <flow id="F10" begin="601" departLane="2" fromTaz="taz_3" departSpeed="1" toTaz="taz_2" end="1200" number="276"/>
    <flow id="F11" begin="601" departLane="1" fromTaz="taz_1" departSpeed="1" toTaz="taz_3" end="1200" number="204"/>
    <flow id="F12" begin="601" departLane="1" fromTaz="taz_3" departSpeed="1" toTaz="taz_1" end="1200" number="134"/>
    <flow id="F13" begin="601" departLane="2" departSpeed="1" fromTaz="taz_2" toTaz="taz_1" end="1200" number="281"/>
    <flow id="F14" begin="601" departLane="2" fromTaz="taz_0" departSpeed="1" toTaz="taz_3" end="1200" number="122"/>
    <flow id="F15" begin="601" departLane="1" fromTaz="taz_0" departSpeed="1" toTaz="taz_2" end="1200" number="165"/>
    <flow id="F16" begin="601" departLane="1" fromTaz="taz_2" departSpeed="1" toTaz="taz_0" end="1200" number="212"/>
    <person id="p_401" depart="1201">
        <personTrip from="E2" to="-E0"/>
    </person>
    <person id="p_402" depart="1201">
        <personTrip from="E2" to="-E3"/>
    </person>
    <person id="p_403" depart="1201">
        <personTrip from="E1" to="-E3"/>
    </person>
    <person id="p_404" depart="1201">
        <personTrip from="E0" to="-E2"/>
    </person>
    <person id="p_405" depart="1201">
        <personTrip from="E2" to="-E3"/>
    </person>
    <person id="p_406" depart="1201">
        <personTrip from="E3" to="-E0"/>
    </person>
    <person id="p_407" depart="1201">
        <personTrip from="E2" to="-E2"/>
    </person>
    <person id="p_408" depart="1201">
        <personTrip from="E3" to="-E0"/>
    </person>
    <flow id="F17" begin="1201" departLane="2" departSpeed="1" fromTaz="taz_1" toTaz="taz_0" end="1800" number="211"/>
    <flow id="F18" begin="1201" departLane="2" fromTaz="taz_3" departSpeed="1" toTaz="taz_2" end="1800" number="163"/>
    <flow id="F19" begin="1201" departLane="1" fromTaz="taz_1" departSpeed="1" toTaz="taz_3" end="1800" number="153"/>
    <flow id="F20" begin="1201" departLane="1" fromTaz="taz_3" departSpeed="1" toTaz="taz_1" end="1800" number="273"/>
    <flow id="F21" begin="1201" departLane="2" departSpeed="1" fromTaz="taz_2" toTaz="taz_1" end="1800" number="143"/>
    <flow id="F22" begin="1201" departLane="2" fromTaz="taz_0" departSpeed="1" toTaz="taz_3" end="1800" number="167"/>
    <flow id="F23" begin="1201" departLane="1" fromTaz="taz_0" departSpeed="1" toTaz="taz_2" end="1800" number="252"/>
    <flow id="F24" begin="1201" departLane="1" fromTaz="taz_2" departSpeed="1" toTaz="taz_0" end="1800" number="204"/>
    <person id="p_601" depart="1801">
        <personTrip from="E3" to="-E2"/>
    </person>
    <person id="p_602" depart="1801">
        <personTrip from="E3" to="-E2"/>
    </person>
    <person id="p_603" depart="1801">
        <personTrip from="E2" to="-E2"/>
    </person>
    <person id="p_604" depart="1801">
        <personTrip from="E0" to="-E2"/>
    </person>
    <flow id="F25" begin="1801" departLane="2" departSpeed="1" fromTaz="taz_1" toTaz="taz_0" end="2400" number="297"/>
    <flow id="F26" begin="1801" departLane="2" fromTaz="taz_3" departSpeed="1" toTaz="taz_2" end="2400" number="256"/>
    <flow id="F27" begin="1801" departLane="1" fromTaz="taz_1" departSpeed="1" toTaz="taz_3" end="2400" number="267"/>
    <flow id="F28" begin="1801" departLane="1" fromTaz="taz_3" departSpeed="1" toTaz="taz_1" end="2400" number="180"/>
    <flow id="F29" begin="1801" departLane="2" departSpeed="1" fromTaz="taz_2" toTaz="taz_1" end="2400" number="287"/>
    <flow id="F30" begin="1801" departLane="2" fromTaz="taz_0" departSpeed="1" toTaz="taz_3" end="2400" number="218"/>
    <flow id="F31" begin="1801" departLane="1" fromTaz="taz_0" departSpeed="1" toTaz="taz_2" end="2400" number="121"/>
    <flow id="F32" begin="1801" departLane="1" fromTaz="taz_2" departSpeed="1" toTaz="taz_0" end="2400" number="102"/>
    <person id="p_801" depart="2401">
        <personTrip from="E1" to="-E0"/>
    </person>
    <person id="p_802" depart="2401">
        <personTrip from="E0" to="-E0"/>
    </person>
    <flow id="F33" begin="2401" departLane="2" departSpeed="1" fromTaz="taz_1" toTaz="taz_0" end="3000" number="249"/>
    <flow id="F34" begin="2401" departLane="2" fromTaz="taz_3" departSpeed="1" toTaz="taz_2" end="3000" number="269"/>
    <flow id="F35" begin="2401" departLane="1" fromTaz="taz_1" departSpeed="1" toTaz="taz_3" end="3000" number="264"/>
    <flow id="F36" begin="2401" departLane="1" fromTaz="taz_3" departSpeed="1" toTaz="taz_1" end="3000" number="173"/>
    <flow id="F37" begin="2401" departLane="2" departSpeed="1" fromTaz="taz_2" toTaz="taz_1" end="3000" number="168"/>
    <flow id="F38" begin="2401" departLane="2" fromTaz="taz_0" departSpeed="1" toTaz="taz_3" end="3000" number="277"/>
    <flow id="F39" begin="2401" departLane="1" fromTaz="taz_0" departSpeed="1" toTaz="taz_2" end="3000" number="166"/>
    <flow id="F40" begin="2401" departLane="1" fromTaz="taz_2" departSpeed="1" toTaz="taz_0" end="3000" number="164"/>
    <person id="p_1001" depart="3001">
        <personTrip from="E0" to="-E1"/>
    </person>
    <person id="p_1002" depart="3001">
        <personTrip from="E3" to="-E3"/>
    </person>
    <person id="p_1003" depart="3001">
        <personTrip from="E1" to="-E1"/>
    </person>
    <person id="p_1004" depart="3001">
        <personTrip from="E0" to="-E0"/>
    </person>
    <person id="p_1005" depart="3001">
        <personTrip from="E1" to="-E0"/>
    </person>
    <person id="p_1006" depart="3001">
        <personTrip from="E1" to="-E0"/>
    </person>
    <person id="p_1007" depart="3001">
        <personTrip from="E2" to="-E2"/>
    </person>
    <flow id="F41" begin="3001" departLane="2" departSpeed="1" fromTaz="taz_1" toTaz="taz_0" end="3600" number="241"/>
    <flow id="F42" begin="3001" departLane="2" fromTaz="taz_3" departSpeed="1" toTaz="taz_2" end="3600" number="298"/>
    <flow id="F43" begin="3001" departLane="1" fromTaz="taz_1" departSpeed="1" toTaz="taz_3" end="3600" number="115"/>
    <flow id="F44" begin="3001" departLane="1" fromTaz="taz_3" departSpeed="1" toTaz="taz_1" end="3600" number="152"/>
    <flow id="F45" begin="3001" departLane="2" departSpeed="1" fromTaz="taz_2" toTaz="taz_1" end="3600" number="224"/>
    <flow id="F46" begin="3001" departLane="2" fromTaz="taz_0" departSpeed="1" toTaz="taz_3" end="3600" number="126"/>
    <flow id="F47" begin="3001" departLane="1" fromTaz="taz_0" departSpeed="1" toTaz="taz_2" end="3600" number="102"/>
    <flow id="F48" begin="3001" departLane="1" fromTaz="taz_2" departSpeed="1" toTaz="taz_0" end="3600" number="151"/>
    <person id="p_1201" depart="3601">
        <personTrip from="E0" to="-E2"/>
    </person>
    <person id="p_1202" depart="3601">
        <personTrip from="E1" to="-E1"/>
    </person>
    <person id="p_1203" depart="3601">
        <personTrip from="E0" to="-E3"/>
    </person>
    <person id="p_1204" depart="3601">
        <personTrip from="E1" to="-E2"/>
    </person>
    <person id="p_1205" depart="3601">
        <personTrip from="E1" to="-E1"/>
    </person>
    <person id="p_1206" depart="3601">
        <personTrip from="E1" to="-E3"/>
    </person>
    <person id="p_1207" depart="3601">
        <personTrip from="E0" to="-E0"/>
    </person>
    <person id="p_1208" depart="3601">
        <personTrip from="E2" to="-E1"/>
    </person>
    <person id="p_1209" depart="3601">
        <personTrip from="E3" to="-E0"/>
    </person>
    <person id="p_1210" depart="3601">
        <personTrip from="E1" to="-E0"/>
    </person>
    <flow id="F49" begin="3601" departLane="2" departSpeed="1" fromTaz="taz_1" toTaz="taz_0" end="4200" number="232"/>
    <flow id="F50" begin="3601" departLane="2" fromTaz="taz_3" departSpeed="1" toTaz="taz_2" end="4200" number="219"/>
    <flow id="F51" begin="3601" departLane="1" fromTaz="taz_1" departSpeed="1" toTaz="taz_3" end="4200" number="111"/>
    <flow id="F52" begin="3601" departLane="1" fromTaz="taz_3" departSpeed="1" toTaz="taz_1" end="4200" number="269"/>
    <flow id="F53" begin="3601" departLane="2" departSpeed="1" fromTaz="taz_2" toTaz="taz_1" end="4200" number="239"/>
    <flow id="F54" begin="3601" departLane="2" fromTaz="taz_0" departSpeed="1" toTaz="taz_3" end="4200" number="299"/>
    <flow id="F55" begin="3601" departLane="1" fromTaz="taz_0" departSpeed="1" toTaz="taz_2" end="4200" number="177"/>
    <flow id="F56" begin="3601" departLane="1" fromTaz="taz_2" departSpeed="1" toTaz="taz_0" end="4200" number="247"/>
    <person id="p_1401" depart="4201">
        <personTrip from="E3" to="-E3"/>
    </person>
    <person id="p_1402" depart="4201">
        <personTrip from="E3" to="-E2"/>
    </person>
    <person id="p_1403" depart="4201">
        <personTrip from="E3" to="-E0"/>
    </person>
    <person id="p_1404" depart="4201">
        <personTrip from="E0" to="-E1"/>
    </person>
    <person id="p_1405" depart="4201">
        <personTrip from="E0" to="-E1"/>
    </person>
    <person id="p_1406" depart="4201">
        <personTrip from="E1" to="-E1"/>
    </person>
    <flow id="F57" begin="4201" departLane="2" departSpeed="1" fromTaz="taz_1" toTaz="taz_0" end="4800" number="219"/>
    <flow id="F58" begin="4201" departLane="2" fromTaz="taz_3" departSpeed="1" toTaz="taz_2" end="4800" number="268"/>
    <flow id="F59" begin="4201" departLane="1" fromTaz="taz_1" departSpeed="1" toTaz="taz_3" end="4800" number="233"/>
    <flow id="F60" begin="4201" departLane="1" fromTaz="taz_3" departSpeed="1" toTaz="taz_1" end="4800" number="165"/>
    <flow id="F61" begin="4201" departLane="2" departSpeed="1" fromTaz="taz_2" toTaz="taz_1" end="4800" number="169"/>
    <flow id="F62" begin="4201" departLane="2" fromTaz="taz_0" departSpeed="1" toTaz="taz_3" end="4800" number="282"/>
    <flow id="F63" begin="4201" departLane="1" fromTaz="taz_0" departSpeed="1" toTaz="taz_2" end="4800" number="154"/>
    <flow id="F64" begin="4201" departLane="1" fromTaz="taz_2" departSpeed="1" toTaz="taz_0" end="4800" number="149"/>
    <person id="p_1601" depart="4801">
        <personTrip from="E3" to="-E1"/>
    </person>
    <person id="p_1602" depart="4801">
        <personTrip from="E0" to="-E1"/>
    </person>
    <person id="p_1603" depart="4801">
        <personTrip from="E3" to="-E2"/>
    </person>
    <person id="p_1604" depart="4801">
        <personTrip from="E2" to="-E1"/>
    </person>
    <person id="p_1605" depart="4801">
        <personTrip from="E3" to="-E2"/>
    </person>
    <person id="p_1606" depart="4801">
        <personTrip from="E3" to="-E0"/>
    </person>
    <person id="p_1607" depart="4801">
        <personTrip from="E3" to="-E3"/>
    </person>
    <person id="p_1608" depart="4801">
        <personTrip from="E3" to="-E3"/>
    </person>
    <person id="p_1609" depart="4801">
        <personTrip from="E0" to="-E3"/>
    </person>
    <flow id="F65" begin="4801" departLane="2" departSpeed="1" fromTaz="taz_1" toTaz="taz_0" end="5400" number="102"/>
    <flow id="F66" begin="4801" departLane="2" fromTaz="taz_3" departSpeed="1" toTaz="taz_2" end="5400" number="266"/>
    <flow id="F67" begin="4801" departLane="1" fromTaz="taz_1" departSpeed="1" toTaz="taz_3" end="5400" number="160"/>
    <flow id="F68" begin="4801" departLane="1" fromTaz="taz_3" departSpeed="1" toTaz="taz_1" end="5400" number="106"/>
    <flow id="F69" begin="4801" departLane="2" departSpeed="1" fromTaz="taz_2" toTaz="taz_1" end="5400" number="284"/>
    <flow id="F70" begin="4801" departLane="2" fromTaz="taz_0" departSpeed="1" toTaz="taz_3" end="5400" number="114"/>
    <flow id="F71" begin="4801" departLane="1" fromTaz="taz_0" departSpeed="1" toTaz="taz_2" end="5400" number="193"/>
    <flow id="F72" begin="4801" departLane="1" fromTaz="taz_2" departSpeed="1" toTaz="taz_0" end="5400" number="260"/>
    <person id="p_1801" depart="5401">
        <personTrip from="E2" to="-E1"/>
    </person>
    <flow id="F73" begin="5401" departLane="2" departSpeed="1" fromTaz="taz_1" toTaz="taz_0" end="6000" number="274"/>
    <flow id="F74" begin="5401" departLane="2" fromTaz="taz_3" departSpeed="1" toTaz="taz_2" end="6000" number="136"/>
    <flow id="F75" begin="5401" departLane="1" fromTaz="taz_1" departSpeed="1" toTaz="taz_3" end="6000" number="222"/>
    <flow id="F76" begin="5401" departLane="1" fromTaz="taz_3" departSpeed="1" toTaz="taz_1" end="6000" number="118"/>
    <flow id="F77" begin="5401" departLane="2" departSpeed="1" fromTaz="taz_2" toTaz="taz_1" end="6000" number="169"/>
    <flow id="F78" begin="5401" departLane="2" fromTaz="taz_0" departSpeed="1" toTaz="taz_3" end="6000" number="282"/>
    <flow id="F79" begin="5401" departLane="1" fromTaz="taz_0" departSpeed="1" toTaz="taz_2" end="6000" number="289"/>
    <flow id="F80" begin="5401" departLane="1" fromTaz="taz_2" departSpeed="1" toTaz="taz_0" end="6000" number="231"/>
    <person id="p_2001" depart="6001">
        <personTrip from="E1" to="-E0"/>
    </person>
    <person id="p_2002" depart="6001">
        <personTrip from="E0" to="-E3"/>
    </person>
    <person id="p_2003" depart="6001">
        <personTrip from="E1" to="-E3"/>
    </person>
    <flow id="F81" begin="6001" departLane="2" departSpeed="1" fromTaz="taz_1" toTaz="taz_0" end="6600" number="257"/>
    <flow id="F82" begin="6001" departLane="2" fromTaz="taz_3" departSpeed="1" toTaz="taz_2" end="6600" number="179"/>
    <flow id="F83" begin="6001" departLane="1" fromTaz="taz_1" departSpeed="1" toTaz="taz_3" end="6600" number="274"/>
    <flow id="F84" begin="6001" departLane="1" fromTaz="taz_3" departSpeed="1" toTaz="taz_1" end="6600" number="155"/>
    <flow id="F85" begin="6001" departLane="2" departSpeed="1" fromTaz="taz_2" toTaz="taz_1" end="6600" number="249"/>
    <flow id="F86" begin="6001" departLane="2" fromTaz="taz_0" departSpeed="1" toTaz="taz_3" end="6600" number="300"/>
    <flow id="F87" begin="6001" departLane="1" fromTaz="taz_0" departSpeed="1" toTaz="taz_2" end="6600" number="109"/>
    <flow id="F88" begin="6001" departLane="1" fromTaz="taz_2" departSpeed="1" toTaz="taz_0" end="6600" number="145"/>
    <person id="p_2201" depart="6601">
        <personTrip from="E2" to="-E2"/>
    </person>
    <person id="p_2202" depart="6601">
        <personTrip from="E2" to="-E2"/>
    </person>
    <flow id="F89" begin="6601" departLane="2" departSpeed="1" fromTaz="taz_1" toTaz="taz_0" end="7200" number="251"/>
    <flow id="F90" begin="6601" departLane="2" fromTaz="taz_3" departSpeed="1" toTaz="taz_2" end="7200" number="211"/>
    <flow id="F91" begin="6601" departLane="1" fromTaz="taz_1" departSpeed="1" toTaz="taz_3" end="7200" number="145"/>
    <flow id="F92" begin="6601" departLane="1" fromTaz="taz_3" departSpeed="1" toTaz="taz_1" end="7200" number="299"/>
    <flow id="F93" begin="6601" departLane="2" departSpeed="1" fromTaz="taz_2" toTaz="taz_1" end="7200" number="228"/>
    <flow id="F94" begin="6601" departLane="2" fromTaz="taz_0" departSpeed="1" toTaz="taz_3" end="7200" number="111"/>
    <flow id="F95" begin="6601" departLane="1" fromTaz="taz_0" departSpeed="1" toTaz="taz_2" end="7200" number="287"/>
    <flow id="F96" begin="6601" departLane="1" fromTaz="taz_2" departSpeed="1" toTaz="taz_0" end="7200" number="260"/>
    <person id="p_2401" depart="7201">
        <personTrip from="E0" to="-E1"/>
    </person>
    <person id="p_2402" depart="7201">
        <personTrip from="E1" to="-E3"/>
    </person>
    <person id="p_2403" depart="7201">
        <personTrip from="E3" to="-E2"/>
    </person>
    <person id="p_2404" depart="7201">
        <personTrip from="E0" to="-E1"/>
    </person>
    <person id="p_2405" depart="7201">
        <personTrip from="E1" to="-E3"/>
    </person>
    <person id="p_2406" depart="7201">
        <personTrip from="E2" to="-E2"/>
    </person>
    <person id="p_2407" depart="7201">
        <personTrip from="E1" to="-E3"/>
    </person>
    <person id="p_2408" depart="7201">
        <personTrip from="E3" to="-E1"/>
    </person>
    <person id="p_2409" depart="7201">
        <personTrip from="E0" to="-E1"/>
    </person>
    <flow id="F97" begin="7201" departLane="2" departSpeed="1" fromTaz="taz_1" toTaz="taz_0" end="7800" number="225"/>
    <flow id="F98" begin="7201" departLane="2" fromTaz="taz_3" departSpeed="1" toTaz="taz_2" end="7800" number="179"/>
    <flow id="F99" begin="7201" departLane="1" fromTaz="taz_1" departSpeed="1" toTaz="taz_3" end="7800" number="109"/>
    <flow id="F100" begin="7201" departLane="1" fromTaz="taz_3" departSpeed="1" toTaz="taz_1" end="7800" number="242"/>
    <flow id="F101" begin="7201" departLane="2" departSpeed="1" fromTaz="taz_2" toTaz="taz_1" end="7800" number="124"/>
    <flow id="F102" begin="7201" departLane="2" fromTaz="taz_0" departSpeed="1" toTaz="taz_3" end="7800" number="256"/>
    <flow id="F103" begin="7201" departLane="1" fromTaz="taz_0" departSpeed="1" toTaz="taz_2" end="7800" number="261"/>
    <flow id="F104" begin="7201" departLane="1" fromTaz="taz_2" departSpeed="1" toTaz="taz_0" end="7800" number="263"/>
    <person id="p_2601" depart="7801">
        <personTrip from="E3" to="-E2"/>
    </person>
    <person id="p_2602" depart="7801">
        <personTrip from="E1" to="-E1"/>
    </person>
    <person id="p_2603" depart="7801">
        <personTrip from="E3" to="-E2"/>
    </person>
    <person id="p_2604" depart="7801">
        <personTrip from="E0" to="-E3"/>
    </person>
    <person id="p_2605" depart="7801">
        <personTrip from="E1" to="-E1"/>
    </person>
    <flow id="F105" begin="7801" departLane="2" departSpeed="1" fromTaz="taz_1" toTaz="taz_0" end="8400" number="241"/>
    <flow id="F106" begin="7801" departLane="2" fromTaz="taz_3" departSpeed="1" toTaz="taz_2" end="8400" number="155"/>
    <flow id="F107" begin="7801" departLane="1" fromTaz="taz_1" departSpeed="1" toTaz="taz_3" end="8400" number="103"/>
    <flow id="F108" begin="7801" departLane="1" fromTaz="taz_3" departSpeed="1" toTaz="taz_1" end="8400" number="131"/>
    <flow id="F109" begin="7801" departLane="2" departSpeed="1" fromTaz="taz_2" toTaz="taz_1" end="8400" number="103"/>
    <flow id="F110" begin="7801" departLane="2" fromTaz="taz_0" departSpeed="1" toTaz="taz_3" end="8400" number="291"/>
    <flow id="F111" begin="7801" departLane="1" fromTaz="taz_0" departSpeed="1" toTaz="taz_2" end="8400" number="185"/>
    <flow id="F112" begin="7801" departLane="1" fromTaz="taz_2" departSpeed="1" toTaz="taz_0" end="8400" number="118"/>
    <person id="p_2801" depart="8401">
        <personTrip from="E3" to="-E3"/>
    </person>
    <person id="p_2802" depart="8401">
        <personTrip from="E2" to="-E1"/>
    </person>
    <person id="p_2803" depart="8401">
        <personTrip from="E2" to="-E2"/>
    </person>
    <person id="p_2804" depart="8401">
        <personTrip from="E1" to="-E1"/>
    </person>
    <person id="p_2805" depart="8401">
        <personTrip from="E0" to="-E0"/>
    </person>
    <person id="p_2806" depart="8401">
        <personTrip from="E1" to="-E2"/>
    </person>
    <flow id="F113" begin="8401" departLane="2" departSpeed="1" fromTaz="taz_1" toTaz="taz_0" end="9000" number="182"/>
    <flow id="F114" begin="8401" departLane="2" fromTaz="taz_3" departSpeed="1" toTaz="taz_2" end="9000" number="220"/>
    <flow id="F115" begin="8401" departLane="1" fromTaz="taz_1" departSpeed="1" toTaz="taz_3" end="9000" number="293"/>
    <flow id="F116" begin="8401" departLane="1" fromTaz="taz_3" departSpeed="1" toTaz="taz_1" end="9000" number="230"/>
    <flow id="F117" begin="8401" departLane="2" departSpeed="1" fromTaz="taz_2" toTaz="taz_1" end="9000" number="121"/>
    <flow id="F118" begin="8401" departLane="2" fromTaz="taz_0" departSpeed="1" toTaz="taz_3" end="9000" number="192"/>
    <flow id="F119" begin="8401" departLane="1" fromTaz="taz_0" departSpeed="1" toTaz="taz_2" end="9000" number="125"/>
    <flow id="F120" begin="8401" departLane="1" fromTaz="taz_2" departSpeed="1" toTaz="taz_0" end="9000" number="136"/>
    <person id="p_3001" depart="9001">
        <personTrip from="E0" to="-E3"/>
    </person>
    <person id="p_3002" depart="9001">
        <personTrip from="E2" to="-E3"/>
    </person>
    <person id="p_3003" depart="9001">
        <personTrip from="E1" to="-E0"/>
    </person>
    <person id="p_3004" depart="9001">
        <personTrip from="E3" to="-E0"/>
    </person>
    <person id="p_3005" depart="9001">
        <personTrip from="E2" to="-E1"/>
    </person>
    <person id="p_3006" depart="9001">
        <personTrip from="E1" to="-E0"/>
    </person>
    <person id="p_3007" depart="9001">
        <personTrip from="E1" to="-E2"/>
    </person>
    <person id="p_3008" depart="9001">
        <personTrip from="E0" to="-E0"/>
    </person>
    <person id="p_3009" depart="9001">
        <personTrip from="E1" to="-E3"/>
    </person>
    <person id="p_3010" depart="9001">
        <personTrip from="E3" to="-E2"/>
    </person>
    <flow id="F121" begin="9001" departLane="2" departSpeed="1" fromTaz="taz_1" toTaz="taz_0" end="9600" number="273"/>
    <flow id="F122" begin="9001" departLane="2" fromTaz="taz_3" departSpeed="1" toTaz="taz_2" end="9600" number="295"/>
    <flow id="F123" begin="9001" departLane="1" fromTaz="taz_1" departSpeed="1" toTaz="taz_3" end="9600" number="209"/>
    <flow id="F124" begin="9001" departLane="1" fromTaz="taz_3" departSpeed="1" toTaz="taz_1" end="9600" number="236"/>
    <flow id="F125" begin="9001" departLane="2" departSpeed="1" fromTaz="taz_2" toTaz="taz_1" end="9600" number="102"/>
    <flow id="F126" begin="9001" departLane="2" fromTaz="taz_0" departSpeed="1" toTaz="taz_3" end="9600" number="105"/>
    <flow id="F127" begin="9001" departLane="1" fromTaz="taz_0" departSpeed="1" toTaz="taz_2" end="9600" number="162"/>
    <flow id="F128" begin="9001" departLane="1" fromTaz="taz_2" departSpeed="1" toTaz="taz_0" end="9600" number="211"/>
    <person id="p_3201" depart="9601">
        <personTrip from="E0" to="-E1"/>
    </person>
    <person id="p_3202" depart="9601">
        <personTrip from="E2" to="-E1"/>
    </person>
    <person id="p_3203" depart="9601">
        <personTrip from="E0" to="-E3"/>
    </person>
    <person id="p_3204" depart="9601">
        <personTrip from="E1" to="-E1"/>
    </person>
    <person id="p_3205" depart="9601">
        <personTrip from="E0" to="-E2"/>
    </person>
    <person id="p_3206" depart="9601">
        <personTrip from="E3" to="-E0"/>
    </person>
    <flow id="F129" begin="9601" departLane="2" departSpeed="1" fromTaz="taz_1" toTaz="taz_0" end="10200" number="115"/>
    <flow id="F130" begin="9601" departLane="2" fromTaz="taz_3" departSpeed="1" toTaz="taz_2" end="10200" number="113"/>
    <flow id="F131" begin="9601" departLane="1" fromTaz="taz_1" departSpeed="1" toTaz="taz_3" end="10200" number="134"/>
    <flow id="F132" begin="9601" departLane="1" fromTaz="taz_3" departSpeed="1" toTaz="taz_1" end="10200" number="212"/>
    <flow id="F133" begin="9601" departLane="2" departSpeed="1" fromTaz="taz_2" toTaz="taz_1" end="10200" number="193"/>
    <flow id="F134" begin="9601" departLane="2" fromTaz="taz_0" departSpeed="1" toTaz="taz_3" end="10200" number="108"/>
    <flow id="F135" begin="9601" departLane="1" fromTaz="taz_0" departSpeed="1" toTaz="taz_2" end="10200" number="264"/>
    <flow id="F136" begin="9601" departLane="1" fromTaz="taz_2" departSpeed="1" toTaz="taz_0" end="10200" number="255"/>
</routes>
